dss/import/capas-pablo/Formato-interfaz/completo-linegeometry-loadshape-csv/LineConstantsCode.DSS
!--- OpenDSS Linecodes file generated from Show LINECONSTANTS command
!--- Frequency = 50 Hz, Earth resistivity = 100 ohm-m
!--- Earth Model = Deri

New Linecode.geometria_s16 nphases=3  Units=kft
~ Rmatrix=[0.65182  |0.014776  0.65182  |0.0147759  0.014776  0.65182  ]
~ Xmatrix=[0.251838  |0.145961  0.251838  |0.132686  0.145961  0.251838  ]
~ Cmatrix=[2.36956  |-0.78127  2.53373  |-0.470513  -0.78127  2.36956  ]

New Linecode.geometria_s25 nphases=3  Units=kft
~ Rmatrix=[0.414083  |0.014776  0.414083  |0.0147759  0.014776  0.414083  ]
~ Xmatrix=[0.247193  |0.145961  0.247193  |0.132686  0.145961  0.247193  ]
~ Cmatrix=[2.46579  |-0.833511  2.64835  |-0.494558  -0.833511  2.46579  ]

New Linecode.geometria_s35 nphases=3  Units=kft
~ Rmatrix=[0.304972  |0.014776  0.304972  |0.0147759  0.014776  0.304972  ]
~ Xmatrix=[0.244199  |0.145961  0.244199  |0.132686  0.145961  0.244199  ]
~ Cmatrix=[2.53238  |-0.870298  2.72835  |-0.511036  -0.870298  2.53238  ]

New Linecode.geometria_s50 nphases=3  Units=kft
~ Rmatrix=[0.216896  |0.014776  0.216896  |0.0147759  0.014776  0.216896  ]
~ Xmatrix=[0.240749  |0.145961  0.240749  |0.132686  0.145961  0.240749  ]
~ Cmatrix=[2.61406  |-0.916107  2.82723  |-0.531043  -0.916107  2.61406  ]

New Linecode.geometria_s70 nphases=3  Units=kft
~ Rmatrix=[0.162351  |0.014776  0.162351  |0.0147759  0.014776  0.162351  ]
~ Xmatrix=[0.237647  |0.145961  0.237647  |0.132686  0.145961  0.237647  ]
~ Cmatrix=[2.69248  |-0.960802  2.92298  |-0.550027  -0.960802  2.69248  ]

New Linecode.geometria_s95 nphases=3  Units=kft
~ Rmatrix=[0.122137  |0.014776  0.122137  |0.0147759  0.014776  0.122137  ]
~ Xmatrix=[0.234517  |0.145961  0.234517  |0.132686  0.145961  0.234517  ]
~ Cmatrix=[2.77693  |-1.00969  3.02697  |-0.570199  -1.00969  2.77693  ]

New Linecode.geometria_s120 nphases=3  Units=kft
~ Rmatrix=[0.098687  |0.014776  0.098687  |0.0147759  0.014776  0.098687  ]
~ Xmatrix=[0.232093  |0.145961  0.232093  |0.132686  0.145961  0.232093  ]
~ Cmatrix=[2.84634  |-1.05045  3.11314  |-0.586553  -1.05045  2.84634  ]

New Linecode.geometria_s35_33 nphases=3  Units=kft
~ Rmatrix=[0.304972  |0.0147759  0.304972  |0.0147759  0.0147759  0.304972  ]
~ Xmatrix=[0.244199  |0.130861  0.244199  |0.117586  0.130861  0.244199  ]
~ Cmatrix=[2.29573  |-0.651386  2.42015  |-0.372391  -0.651386  2.29573  ]

New Linecode.geometria_s70_33 nphases=3  Units=kft
~ Rmatrix=[0.162351  |0.0147759  0.162351  |0.0147759  0.0147759  0.162351  ]
~ Xmatrix=[0.237647  |0.130861  0.237647  |0.117586  0.130861  0.237647  ]
~ Cmatrix=[2.42019  |-0.712739  2.56407  |-0.399721  -0.712739  2.42019  ]
